obj01
  PyMOL2.2          3D                             0

 86 87  0  0  0  0  0  0  0  0999 V2000
  -13.8230   14.4740   35.2070 N   0  0  0  0  0  0  0  0  0  0  0  0
  -12.5640   14.2090   34.5660 C   0  0  0  0  0  0  0  0  0  0  0  0
  -10.5980   16.6900   32.5180 C   0  0  0  0  0  0  0  0  0  0  0  0
  -11.2840   16.4970   28.7790 C   0  0  0  0  0  0  0  0  0  0  0  0
   -8.6050   18.8260   27.3980 C   0  0  0  0  0  0  0  0  0  0  0  0
   -8.2530   17.0230   24.0680 C   0  0  0  0  0  0  0  0  0  0  0  0
   -5.1960   17.1430   21.8630 C   0  0  0  0  0  0  0  0  0  0  0  0
  -12.3220   15.0960   33.3430 C   0  0  0  0  0  0  0  0  0  0  0  0
  -13.0380   15.2390   32.3750 O   0  0  0  0  0  0  0  0  0  0  0  0
  -12.2500   12.7420   34.3720 C   0  0  0  0  0  0  0  0  0  0  0  0
   -9.2620   17.1870   33.1080 C   0  0  0  0  0  0  0  0  0  0  0  0
  -12.6700   16.0790   28.3220 C   0  0  0  0  0  0  0  0  0  0  0  0
   -9.4570   16.3770   23.3870 C   0  0  0  0  0  0  0  0  0  0  0  0
   -5.5890   17.4860   20.4370 C   0  0  0  0  0  0  0  0  0  0  0  0
  -13.4320   14.9710   29.0480 C   0  0  0  0  0  0  0  0  0  0  0  0
   -9.2640   14.9020   23.0550 C   0  0  0  0  0  0  0  0  0  0  0  0
   -7.0590   17.8530   20.2000 C   0  0  0  0  0  0  0  0  0  0  0  0
  -10.7390   16.5330   24.2240 C   0  0  0  0  0  0  0  0  0  0  0  0
   -4.6720   18.5350   19.8020 C   0  0  0  0  0  0  0  0  0  0  0  0
  -13.0760   13.6290   28.9830 C   0  0  0  0  0  0  0  0  0  0  0  0
  -14.5600   15.3730   29.8070 C   0  0  0  0  0  0  0  0  0  0  0  0
  -13.8180   12.6380   29.6610 C   0  0  0  0  0  0  0  0  0  0  0  0
  -15.3000   14.3800   30.4830 C   0  0  0  0  0  0  0  0  0  0  0  0
  -14.9170   13.0430   30.4120 C   0  0  0  0  0  0  0  0  0  0  0  0
   -9.4050   18.1960   28.5460 C   0  0  0  0  0  0  0  0  0  0  0  0
  -10.5140   16.1130   31.1200 C   0  0  0  0  0  0  0  0  0  0  0  0
  -11.1640   15.7690   33.4360 N   0  0  0  0  0  0  0  0  0  0  0  0
   -9.8530   15.1410   30.7800 O   0  0  0  0  0  0  0  0  0  0  0  0
  -10.8180   17.7530   28.0100 C   0  0  0  0  0  0  0  0  0  0  0  0
  -11.2340   16.8020   30.1970 N   0  0  0  0  0  0  0  0  0  0  0  0
   -7.4700   16.8490   26.6960 O   0  0  0  0  0  0  0  0  0  0  0  0
   -8.1830   17.8170   26.3600 C   0  0  0  0  0  0  0  0  0  0  0  0
   -7.5440   18.7990   22.5960 O   0  0  0  0  0  0  0  0  0  0  0  0
   -7.3120   17.7050   23.0540 C   0  0  0  0  0  0  0  0  0  0  0  0
   -8.5850   17.9710   25.1030 N   0  0  0  0  0  0  0  0  0  0  0  0
   -4.4340   18.6540   23.6000 O   0  0  0  0  0  0  0  0  0  0  0  0
   -4.2530   18.1990   22.4730 C   0  0  0  0  0  0  0  0  0  0  0  0
   -6.2770   16.9100   22.7550 N   0  0  0  0  0  0  0  0  0  0  0  0
   -3.1720   18.6000   21.6520 O   0  0  0  0  0  0  0  0  0  0  0  0
   -3.5630   18.4470   20.2780 C   0  0  0  0  0  0  0  0  0  0  0  0
  -11.6970   18.8220   28.2490 O   0  0  0  0  0  0  0  0  0  0  0  0
  -13.7494   14.2678   36.1930 H   0  0  0  0  0  0  0  0  0  0  0  0
  -14.0664   15.4464   35.0831 H   0  0  0  0  0  0  0  0  0  0  0  0
  -11.8034   14.5157   35.2841 H   0  0  0  0  0  0  0  0  0  0  0  0
  -11.2403   17.5608   32.3867 H   0  0  0  0  0  0  0  0  0  0  0  0
  -10.6298   15.6489   28.5769 H   0  0  0  0  0  0  0  0  0  0  0  0
   -7.6994   19.2562   27.8257 H   0  0  0  0  0  0  0  0  0  0  0  0
   -9.2225   19.5846   26.9170 H   0  0  0  0  0  0  0  0  0  0  0  0
   -7.7464   16.1847   24.5463 H   0  0  0  0  0  0  0  0  0  0  0  0
   -4.6760   16.1911   21.7554 H   0  0  0  0  0  0  0  0  0  0  0  0
  -11.2886   12.5129   34.8317 H   0  0  0  0  0  0  0  0  0  0  0  0
  -13.0283   12.1384   34.8389 H   0  0  0  0  0  0  0  0  0  0  0  0
  -12.2053   12.5172   33.3064 H   0  0  0  0  0  0  0  0  0  0  0  0
   -8.5286   17.2910   32.3083 H   0  0  0  0  0  0  0  0  0  0  0  0
   -9.4137   18.1533   33.5890 H   0  0  0  0  0  0  0  0  0  0  0  0
   -8.8986   16.4680   33.8422 H   0  0  0  0  0  0  0  0  0  0  0  0
  -12.4793   15.6396   27.3429 H   0  0  0  0  0  0  0  0  0  0  0  0
  -13.2957   16.9702   28.3697 H   0  0  0  0  0  0  0  0  0  0  0  0
   -9.5573   16.9174   22.4457 H   0  0  0  0  0  0  0  0  0  0  0  0
   -5.4510   16.5305   19.9310 H   0  0  0  0  0  0  0  0  0  0  0  0
   -8.2955   14.5697   23.4288 H   0  0  0  0  0  0  0  0  0  0  0  0
  -10.0544   14.3168   23.5250 H   0  0  0  0  0  0  0  0  0  0  0  0
   -9.3025   14.7641   21.9744 H   0  0  0  0  0  0  0  0  0  0  0  0
   -7.6418   17.6079   21.0879 H   0  0  0  0  0  0  0  0  0  0  0  0
   -7.1393   18.9209   19.9968 H   0  0  0  0  0  0  0  0  0  0  0  0
   -7.4417   17.2907   19.3483 H   0  0  0  0  0  0  0  0  0  0  0  0
  -11.5616   16.0189   23.7269 H   0  0  0  0  0  0  0  0  0  0  0  0
  -10.5839   16.0988   25.2117 H   0  0  0  0  0  0  0  0  0  0  0  0
  -10.9809   17.5910   24.3255 H   0  0  0  0  0  0  0  0  0  0  0  0
   -5.0714   19.5301   19.9976 H   0  0  0  0  0  0  0  0  0  0  0  0
   -4.6199   18.3685   18.7261 H   0  0  0  0  0  0  0  0  0  0  0  0
  -12.2056   13.3357   28.3961 H   0  0  0  0  0  0  0  0  0  0  0  0
  -14.8482   16.4225   29.8668 H   0  0  0  0  0  0  0  0  0  0  0  0
  -13.5383   11.5864   29.5981 H   0  0  0  0  0  0  0  0  0  0  0  0
  -16.1777   14.6613   31.0649 H   0  0  0  0  0  0  0  0  0  0  0  0
  -15.4923   12.2955   30.9582 H   0  0  0  0  0  0  0  0  0  0  0  0
   -9.5293   18.9236   29.3480 H   0  0  0  0  0  0  0  0  0  0  0  0
   -8.8708   17.3268   28.9296 H   0  0  0  0  0  0  0  0  0  0  0  0
  -10.6236   15.5963   34.2716 H   0  0  0  0  0  0  0  0  0  0  0  0
  -10.7861   17.5114   26.9476 H   0  0  0  0  0  0  0  0  0  0  0  0
  -11.7773   17.5885   30.5232 H   0  0  0  0  0  0  0  0  0  0  0  0
   -9.1418   18.7791   24.8642 H   0  0  0  0  0  0  0  0  0  0  0  0
   -6.2627   16.0191   23.2306 H   0  0  0  0  0  0  0  0  0  0  0  0
   -3.1439   19.3736   19.8858 H   0  0  0  0  0  0  0  0  0  0  0  0
   -3.2242   17.4477   20.0047 H   0  0  0  0  0  0  0  0  0  0  0  0
  -11.8808   19.2765   27.4236 H   0  0  0  0  0  0  0  0  0  0  0  0
  1  2  1  0  0  0  0
  1 42  1  0  0  0  0
  1 43  1  0  0  0  0
  2  8  1  0  0  0  0
  2 10  1  0  0  0  0
  2 44  1  0  0  0  0
  3 11  1  0  0  0  0
  3 26  1  0  0  0  0
  3 45  1  0  0  0  0
  4 12  1  0  0  0  0
  4 30  1  0  0  0  0
  4 46  1  0  0  0  0
  5 25  1  0  0  0  0
  5 47  1  0  0  0  0
  5 48  1  0  0  0  0
  6 13  1  0  0  0  0
  6 34  1  0  0  0  0
  6 49  1  0  0  0  0
  7 14  1  0  0  0  0
  7 37  1  0  0  0  0
  7 50  1  0  0  0  0
  8  9  2  0  0  0  0
  8 27  1  0  0  0  0
 10 51  1  0  0  0  0
 10 52  1  0  0  0  0
 10 53  1  0  0  0  0
 11 54  1  0  0  0  0
 11 55  1  0  0  0  0
 11 56  1  0  0  0  0
 12 15  1  0  0  0  0
 12 57  1  0  0  0  0
 12 58  1  0  0  0  0
 13 16  1  0  0  0  0
 13 18  1  0  0  0  0
 13 59  1  0  0  0  0
 14 17  1  0  0  0  0
 14 19  1  0  0  0  0
 14 60  1  0  0  0  0
 15 20  4  0  0  0  0
 15 21  4  0  0  0  0
 16 61  1  0  0  0  0
 16 62  1  0  0  0  0
 16 63  1  0  0  0  0
 17 64  1  0  0  0  0
 17 65  1  0  0  0  0
 17 66  1  0  0  0  0
 18 67  1  0  0  0  0
 18 68  1  0  0  0  0
 18 69  1  0  0  0  0
 19 40  1  0  0  0  0
 19 70  1  0  0  0  0
 19 71  1  0  0  0  0
 20 22  4  0  0  0  0
 20 72  1  0  0  0  0
 21 23  4  0  0  0  0
 21 73  1  0  0  0  0
 22 24  4  0  0  0  0
 22 74  1  0  0  0  0
 23 24  4  0  0  0  0
 23 75  1  0  0  0  0
 24 76  1  0  0  0  0
 25 29  1  0  0  0  0
 25 77  1  0  0  0  0
 25 78  1  0  0  0  0
 26 28  2  0  0  0  0
 26 30  1  0  0  0  0
  3 27  1  0  0  0  0
 27 79  1  0  0  0  0
  4 29  1  0  0  0  0
 29 41  1  0  0  0  0
 29 80  1  0  0  0  0
 30 81  1  0  0  0  0
  5 32  1  0  0  0  0
 31 32  2  0  0  0  0
 32 35  1  0  0  0  0
 33 34  2  0  0  0  0
 34 38  1  0  0  0  0
  6 35  1  0  0  0  0
 35 82  1  0  0  0  0
 36 37  2  0  0  0  0
 37 39  1  0  0  0  0
  7 38  1  0  0  0  0
 38 83  1  0  0  0  0
 39 40  1  0  0  0  0
 40 84  1  0  0  0  0
 40 85  1  0  0  0  0
 41 86  1  0  0  0  0
M  END
