obj01
  PyMOL2.2          3D                             0

 87 90  0  0  0  0  0  0  0  0999 V2000
    6.8480    1.1810    6.1590 C   0  0  0  0  0  0  0  0  0  0  0  0
    7.9070    1.4590    5.4270 N   0  0  0  0  0  0  0  0  0  0  0  0
    5.2350    3.7910    9.0820 O   0  0  0  0  0  0  0  0  0  0  0  0
    0.6680    0.4350   11.9930 S   0  0  0  0  0  0  0  0  0  0  0  0
    6.3030    2.0170    7.1160 C   0  0  0  0  0  0  0  0  0  0  0  0
    3.9550    2.3840   10.8930 N   0  0  0  0  0  0  0  0  0  0  0  0
    4.9490    0.9340   16.4270 O   0  0  0  0  0  0  0  0  0  0  0  0
    3.2630   -4.4400   14.9730 S   0  0  0  0  0  0  0  0  0  0  0  0
    6.8860    3.2730    7.3630 C   0  0  0  0  0  0  0  0  0  0  0  0
    4.4960    0.9820   13.4920 N   0  0  0  0  0  0  0  0  0  0  0  0
    3.3270    4.2970   11.8520 O   0  0  0  0  0  0  0  0  0  0  0  0
    7.9910    3.5920    6.6130 C   0  0  0  0  0  0  0  0  0  0  0  0
    4.7420   -2.5650   16.0640 N   0  0  0  0  0  0  0  0  0  0  0  0
    6.3240   -1.2340   17.0450 O   0  0  0  0  0  0  0  0  0  0  0  0
    8.4680    2.6490    5.6450 C   0  0  0  0  0  0  0  0  0  0  0  0
    7.6370   -4.5750   16.4030 N   0  0  0  0  0  0  0  0  0  0  0  0
    6.7460   -3.5740   14.5880 O   0  0  0  0  0  0  0  0  0  0  0  0
    6.3520    4.1700    8.3470 C   0  0  0  0  0  0  0  0  0  0  0  0
    3.7580   -0.6290   12.1110 O   0  0  0  0  0  0  0  0  0  0  0  0
    7.0000    5.3880    8.5210 C   0  0  0  0  0  0  0  0  0  0  0  0
    8.1090    5.7150    7.7740 C   0  0  0  0  0  0  0  0  0  0  0  0
    8.6290    4.8460    6.8160 C   0  0  0  0  0  0  0  0  0  0  0  0
    5.1400    4.3750   10.3520 C   0  0  0  0  0  0  0  0  0  0  0  0
    4.0670    3.6830   11.1060 C   0  0  0  0  0  0  0  0  0  0  0  0
    1.9440    1.0010   10.8350 C   0  0  0  0  0  0  0  0  0  0  0  0
    3.7830    0.5420   12.4570 C   0  0  0  0  0  0  0  0  0  0  0  0
    5.3500    0.0820   14.2740 C   0  0  0  0  0  0  0  0  0  0  0  0
    4.7050   -0.1800   15.6420 C   0  0  0  0  0  0  0  0  0  0  0  0
    6.7750    0.6540   14.3470 C   0  0  0  0  0  0  0  0  0  0  0  0
    5.3390   -1.3860   16.3300 C   0  0  0  0  0  0  0  0  0  0  0  0
    5.3730   -3.8190   16.5060 C   0  0  0  0  0  0  0  0  0  0  0  0
    4.4270   -4.9930   16.2580 C   0  0  0  0  0  0  0  0  0  0  0  0
    3.5440   -2.6640   15.2240 C   0  0  0  0  0  0  0  0  0  0  0  0
    6.6530   -3.9790   15.7410 C   0  0  0  0  0  0  0  0  0  0  0  0
    9.0130   -4.6390   15.8920 C   0  0  0  0  0  0  0  0  0  0  0  0
    9.5560   -3.2490   15.5420 C   0  0  0  0  0  0  0  0  0  0  0  0
    9.0970   -5.5670   14.6780 C   0  0  0  0  0  0  0  0  0  0  0  0
    9.8800   -5.1830   17.0210 C   0  0  0  0  0  0  0  0  0  0  0  0
    3.0280    1.6030   11.6960 C   0  0  0  0  0  0  0  0  0  0  0  0
   -0.1580    2.0560   12.1600 C   0  0  0  0  0  0  0  0  0  0  0  0
    7.3720    0.9000   12.9760 C   0  0  0  0  0  0  0  0  0  0  0  0
    7.4010    2.1660   12.4260 C   0  0  0  0  0  0  0  0  0  0  0  0
    7.9490    2.3680   11.1710 C   0  0  0  0  0  0  0  0  0  0  0  0
    8.4650    1.3190   10.4460 C   0  0  0  0  0  0  0  0  0  0  0  0
    8.4370    0.0660   10.9930 C   0  0  0  0  0  0  0  0  0  0  0  0
    7.8990   -0.1460   12.2450 C   0  0  0  0  0  0  0  0  0  0  0  0
    4.5420    1.9150   10.2370 H   0  0  0  0  0  0  0  0  0  0  0  0
    4.4760    1.9510   13.7500 H   0  0  0  0  0  0  0  0  0  0  0  0
    7.4410   -4.9320   17.3200 H   0  0  0  0  0  0  0  0  0  0  0  0
    5.8770    0.7830   16.6640 H   0  0  0  0  0  0  0  0  0  0  0  0
    6.3830    0.2160    6.0010 H   0  0  0  0  0  0  0  0  0  0  0  0
    5.4620    1.7630    7.7090 H   0  0  0  0  0  0  0  0  0  0  0  0
    9.3360    2.9140    5.0590 H   0  0  0  0  0  0  0  0  0  0  0  0
    6.6440    6.0890    9.2580 H   0  0  0  0  0  0  0  0  0  0  0  0
    8.6070    6.6600    7.9340 H   0  0  0  0  0  0  0  0  0  0  0  0
    9.5090    5.1250    6.2510 H   0  0  0  0  0  0  0  0  0  0  0  0
    5.4270   -0.8780   13.7600 H   0  0  0  0  0  0  0  0  0  0  0  0
    3.6200   -0.2630   15.5740 H   0  0  0  0  0  0  0  0  0  0  0  0
    5.5970   -3.7540   17.5730 H   0  0  0  0  0  0  0  0  0  0  0  0
    2.5370    2.2260   12.4440 H   0  0  0  0  0  0  0  0  0  0  0  0
    6.9930    3.0000   12.9840 H   0  0  0  0  0  0  0  0  0  0  0  0
    7.9750    3.3650   10.7580 H   0  0  0  0  0  0  0  0  0  0  0  0
    8.8870    1.4780    9.4630 H   0  0  0  0  0  0  0  0  0  0  0  0
    8.8490   -0.7620   10.4350 H   0  0  0  0  0  0  0  0  0  0  0  0
    7.8840   -1.1380   12.6750 H   0  0  0  0  0  0  0  0  0  0  0  0
    4.9080    5.4400   10.2800 H   0  0  0  0  0  0  0  0  0  0  0  0
    6.0650    4.2720   10.9200 H   0  0  0  0  0  0  0  0  0  0  0  0
    2.3020    0.1560   10.2490 H   0  0  0  0  0  0  0  0  0  0  0  0
    1.5120    1.7280   10.1470 H   0  0  0  0  0  0  0  0  0  0  0  0
    7.4370   -0.0070   14.9100 H   0  0  0  0  0  0  0  0  0  0  0  0
    6.7590    1.5900   14.9110 H   0  0  0  0  0  0  0  0  0  0  0  0
    3.8610   -5.2070   17.1640 H   0  0  0  0  0  0  0  0  0  0  0  0
    4.9340   -5.9150   15.9680 H   0  0  0  0  0  0  0  0  0  0  0  0
    2.6870   -2.2030   15.7120 H   0  0  0  0  0  0  0  0  0  0  0  0
    3.7050   -2.1860   14.2570 H   0  0  0  0  0  0  0  0  0  0  0  0
   10.6090   -3.2990   15.2650 H   0  0  0  0  0  0  0  0  0  0  0  0
    9.4700   -2.5590   16.3820 H   0  0  0  0  0  0  0  0  0  0  0  0
    9.0370   -2.7940   14.6990 H   0  0  0  0  0  0  0  0  0  0  0  0
   10.1130   -5.6140   14.2890 H   0  0  0  0  0  0  0  0  0  0  0  0
    8.4540   -5.2410   13.8640 H   0  0  0  0  0  0  0  0  0  0  0  0
    8.7950   -6.5820   14.9380 H   0  0  0  0  0  0  0  0  0  0  0  0
   10.8970   -5.3850   16.6790 H   0  0  0  0  0  0  0  0  0  0  0  0
    9.4870   -6.1170   17.4210 H   0  0  0  0  0  0  0  0  0  0  0  0
    9.9560   -4.4740   17.8460 H   0  0  0  0  0  0  0  0  0  0  0  0
   -0.9880    1.9690   12.8550 H   0  0  0  0  0  0  0  0  0  0  0  0
   -0.5410    2.3770   11.1910 H   0  0  0  0  0  0  0  0  0  0  0  0
    0.5380    2.8110   12.5230 H   0  0  0  0  0  0  0  0  0  0  0  0
  1  2  4  0  0  0  0
  1  5  4  0  0  0  0
  1 51  1  0  0  0  0
  4 40  1  0  0  0  0
  5  9  4  0  0  0  0
  5 52  1  0  0  0  0
  6 39  1  0  0  0  0
  6 47  1  0  0  0  0
  7 50  1  0  0  0  0
  9 12  4  0  0  0  0
  9 18  4  0  0  0  0
 10 27  1  0  0  0  0
 10 48  1  0  0  0  0
 12 15  4  0  0  0  0
 12 22  4  0  0  0  0
 13 31  1  0  0  0  0
 13 33  1  0  0  0  0
  2 15  4  0  0  0  0
 15 53  1  0  0  0  0
 16 35  1  0  0  0  0
 16 49  1  0  0  0  0
  3 18  1  0  0  0  0
 18 20  4  0  0  0  0
 20 21  4  0  0  0  0
 20 54  1  0  0  0  0
 21 22  4  0  0  0  0
 21 55  1  0  0  0  0
 22 56  1  0  0  0  0
  3 23  1  0  0  0  0
 23 24  1  0  0  0  0
 23 66  1  0  0  0  0
 23 67  1  0  0  0  0
  6 24  1  0  0  0  0
 11 24  2  0  0  0  0
  4 25  1  0  0  0  0
 25 68  1  0  0  0  0
 25 69  1  0  0  0  0
 10 26  1  0  0  0  0
 19 26  2  0  0  0  0
 27 57  1  0  0  0  0
  7 28  1  0  0  0  0
 27 28  1  0  0  0  0
 28 58  1  0  0  0  0
 27 29  1  0  0  0  0
 29 70  1  0  0  0  0
 29 71  1  0  0  0  0
 13 30  1  0  0  0  0
 14 30  2  0  0  0  0
 28 30  1  0  0  0  0
 31 32  1  0  0  0  0
 31 34  1  0  0  0  0
 31 59  1  0  0  0  0
  8 32  1  0  0  0  0
 32 72  1  0  0  0  0
 32 73  1  0  0  0  0
  8 33  1  0  0  0  0
 33 74  1  0  0  0  0
 33 75  1  0  0  0  0
 16 34  1  0  0  0  0
 17 34  2  0  0  0  0
 35 36  1  0  0  0  0
 35 37  1  0  0  0  0
 35 38  1  0  0  0  0
 36 76  1  0  0  0  0
 36 77  1  0  0  0  0
 36 78  1  0  0  0  0
 37 79  1  0  0  0  0
 37 80  1  0  0  0  0
 37 81  1  0  0  0  0
 38 82  1  0  0  0  0
 38 83  1  0  0  0  0
 38 84  1  0  0  0  0
 25 39  1  0  0  0  0
 26 39  1  0  0  0  0
 39 60  1  0  0  0  0
 40 85  1  0  0  0  0
 40 86  1  0  0  0  0
 40 87  1  0  0  0  0
 29 41  1  0  0  0  0
 41 42  4  0  0  0  0
 41 46  4  0  0  0  0
 42 43  4  0  0  0  0
 42 61  1  0  0  0  0
 43 62  1  0  0  0  0
 43 44  4  0  0  0  0
 44 45  4  0  0  0  0
 44 63  1  0  0  0  0
 45 64  1  0  0  0  0
 45 46  4  0  0  0  0
 46 65  1  0  0  0  0
M  END
